examples/feeders/CER3_1_32/CargasPnt_CER3_1_32.dss
New Load.NTUC_17567_MOD2 bus=RM_17567.1.2 phases=1 conn=Delta kv=0.38 kw=-0.3865 pf=0.92 Daily=cc30_Util Model=2 status=variable vminpu=0.92 vmaxpu=1.1 
New Load.NTUC_17567_MOD3 bus=RM_17567.1.2 phases=1 conn=Delta kv=0.38 kw=-0.3865 pf=0.92 Daily=cc30_Util Model=3 status=variable vminpu=0.92 vmaxpu=1.1 

New Load.NTUC_54686_MOD2 bus=RM_54686.1.2 phases=1 conn=Delta kv=0.38 kw=-1.091 pf=0.92 Daily=cc31_Util Model=2 status=variable vminpu=0.92 vmaxpu=1.1 
New Load.NTUC_54686_MOD3 bus=RM_54686.1.2 phases=1 conn=Delta kv=0.38 kw=-1.091 pf=0.92 Daily=cc31_Util Model=3 status=variable vminpu=0.92 vmaxpu=1.1 

New Load.NTUC_31063_MOD2 bus=RM_31063.1.2 phases=1 conn=Delta kv=0.44 kw=-0.7295 pf=0.92 Daily=cc30_Util Model=2 status=variable vminpu=0.92 vmaxpu=1.1 
New Load.NTUC_31063_MOD3 bus=RM_31063.1.2 phases=1 conn=Delta kv=0.44 kw=-0.7295 pf=0.92 Daily=cc30_Util Model=3 status=variable vminpu=0.92 vmaxpu=1.1 

New Load.NTUC_61812_MOD2 bus=RM_61812.1.2 phases=1 conn=Delta kv=0.44 kw=-0.6485 pf=0.92 Daily=cc18_Util Model=2 status=variable vminpu=0.92 vmaxpu=1.1 
New Load.NTUC_61812_MOD3 bus=RM_61812.1.2 phases=1 conn=Delta kv=0.44 kw=-0.6485 pf=0.92 Daily=cc18_Util Model=3 status=variable vminpu=0.92 vmaxpu=1.1 

New Load.NTUC_81905_MOD2 bus=RM_81905.1.2 phases=1 conn=Delta kv=0.44 kw=-0.4345 pf=0.92 Daily=cc30_Util Model=2 status=variable vminpu=0.92 vmaxpu=1.1 
New Load.NTUC_81905_MOD3 bus=RM_81905.1.2 phases=1 conn=Delta kv=0.44 kw=-0.4345 pf=0.92 Daily=cc30_Util Model=3 status=variable vminpu=0.92 vmaxpu=1.1 

New Load.NTUC_17544_MOD2 bus=RM_17544.1.2 phases=1 conn=Delta kv=0.44 kw=-0.005 pf=0.92 Daily=cc29_Util Model=2 status=variable vminpu=0.92 vmaxpu=1.1 
New Load.NTUC_17544_MOD3 bus=RM_17544.1.2 phases=1 conn=Delta kv=0.44 kw=-0.005 pf=0.92 Daily=cc29_Util Model=3 status=variable vminpu=0.92 vmaxpu=1.1 

New Load.NTUC_67721_MOD2 bus=RM_67721.2 phases=1 conn=Wye kv=0.22 kw=-0.337 pf=0.92 Daily=cc30_Util Model=2 status=variable vminpu=0.92 vmaxpu=1.1 
New Load.NTUC_67721_MOD3 bus=RM_67721.2 phases=1 conn=Wye kv=0.22 kw=-0.337 pf=0.92 Daily=cc30_Util Model=3 status=variable vminpu=0.92 vmaxpu=1.1 

New Load.NTUC_37507_MOD2 bus=RM_37507.1 phases=1 conn=Wye kv=0.22 kw=-0.226 pf=0.92 Daily=cc17_Util Model=2 status=variable vminpu=0.92 vmaxpu=1.1 
New Load.NTUC_37507_MOD3 bus=RM_37507.1 phases=1 conn=Wye kv=0.22 kw=-0.226 pf=0.92 Daily=cc17_Util Model=3 status=variable vminpu=0.92 vmaxpu=1.1 

New Load.NTUC_59796_MOD2 bus=RM_59796.2 phases=1 conn=Wye kv=0.22 kw=-0.207 pf=0.92 Daily=cc29_Util Model=2 status=variable vminpu=0.92 vmaxpu=1.1 
New Load.NTUC_59796_MOD3 bus=RM_59796.2 phases=1 conn=Wye kv=0.22 kw=-0.207 pf=0.92 Daily=cc29_Util Model=3 status=variable vminpu=0.92 vmaxpu=1.1 

New Load.NTUC_18962_MOD2 bus=RM_18962.1.2.3 phases=3 conn=Delta kv=0.38 kw=-0.207 pf=0.92 Daily=cc25_Util Model=2 status=variable vminpu=0.92 vmaxpu=1.1 
New Load.NTUC_18962_MOD3 bus=RM_18962.1.2.3 phases=3 conn=Delta kv=0.38 kw=-0.207 pf=0.92 Daily=cc25_Util Model=3 status=variable vminpu=0.92 vmaxpu=1.1 

New Load.NTUC_80779_MOD2 bus=BT_34719_1.1.2.3 phases=3 conn=Delta kv=0.38 kw=-0.566 pf=0.92 Daily=cc35_Util Model=2 status=variable vminpu=0.92 vmaxpu=1.1 
New Load.NTUC_80779_MOD3 bus=BT_34719_1.1.2.3 phases=3 conn=Delta kv=0.38 kw=-0.566 pf=0.92 Daily=cc35_Util Model=3 status=variable vminpu=0.92 vmaxpu=1.1 

New Load.NTUC_70036_MOD2 bus=RM_70036.1.2.3 phases=3 conn=Delta kv=0.38 kw=-1.593 pf=0.92 Daily=cc36_Util Model=2 status=variable vminpu=0.92 vmaxpu=1.1 
New Load.NTUC_70036_MOD3 bus=RM_70036.1.2.3 phases=3 conn=Delta kv=0.38 kw=-1.593 pf=0.92 Daily=cc36_Util Model=3 status=variable vminpu=0.92 vmaxpu=1.1 

New Load.NTUC_9288_MOD2 bus=RM_9288.1 phases=1 conn=Wye kv=0.22 kw=-2.2245 pf=0.92 Daily=cc32_Util Model=2 status=variable vminpu=0.92 vmaxpu=1.1 
New Load.NTUC_9288_MOD3 bus=RM_9288.1 phases=1 conn=Wye kv=0.22 kw=-2.2245 pf=0.92 Daily=cc32_Util Model=3 status=variable vminpu=0.92 vmaxpu=1.1 

New Load.NTUC_9278_MOD2 bus=RM_9278.2 phases=1 conn=Wye kv=0.22 kw=-0.392 pf=0.92 Daily=cc18_Util Model=2 status=variable vminpu=0.92 vmaxpu=1.1 
New Load.NTUC_9278_MOD3 bus=RM_9278.2 phases=1 conn=Wye kv=0.22 kw=-0.392 pf=0.92 Daily=cc18_Util Model=3 status=variable vminpu=0.92 vmaxpu=1.1 

New Load.NTUC_16808_MOD2 bus=RM_16808.1 phases=1 conn=Wye kv=0.22 kw=-0.2685 pf=0.92 Daily=cc17_Util Model=2 status=variable vminpu=0.92 vmaxpu=1.1 
New Load.NTUC_16808_MOD3 bus=RM_16808.1 phases=1 conn=Wye kv=0.22 kw=-0.2685 pf=0.92 Daily=cc17_Util Model=3 status=variable vminpu=0.92 vmaxpu=1.1 

New Load.NTUC_18858_MOD2 bus=RM_18858.2 phases=1 conn=Wye kv=0.219 kw=-0.5005 pf=0.92 Daily=cc30_Util Model=2 status=variable vminpu=0.92 vmaxpu=1.1 
New Load.NTUC_18858_MOD3 bus=RM_18858.2 phases=1 conn=Wye kv=0.219 kw=-0.5005 pf=0.92 Daily=cc30_Util Model=3 status=variable vminpu=0.92 vmaxpu=1.1 

New Load.NTUC_18859_MOD2 bus=RM_18859.1 phases=1 conn=Wye kv=0.219 kw=-0.403 pf=0.92 Daily=cc30_Util Model=2 status=variable vminpu=0.92 vmaxpu=1.1 
New Load.NTUC_18859_MOD3 bus=RM_18859.1 phases=1 conn=Wye kv=0.219 kw=-0.403 pf=0.92 Daily=cc30_Util Model=3 status=variable vminpu=0.92 vmaxpu=1.1 

New Load.NTUC_18856_MOD2 bus=RM_18856.1.2.3 phases=3 conn=Delta kv=0.38 kw=-0.8015 pf=0.92 Daily=cc31_Util Model=2 status=variable vminpu=0.92 vmaxpu=1.1 
New Load.NTUC_18856_MOD3 bus=RM_18856.1.2.3 phases=3 conn=Delta kv=0.38 kw=-0.8015 pf=0.92 Daily=cc31_Util Model=3 status=variable vminpu=0.92 vmaxpu=1.1 

New Load.NTUC_18853_MOD2 bus=RM_18853.1 phases=1 conn=Wye kv=0.219 kw=-0.0555 pf=0.92 Daily=cc29_Util Model=2 status=variable vminpu=0.92 vmaxpu=1.1 
New Load.NTUC_18853_MOD3 bus=RM_18853.1 phases=1 conn=Wye kv=0.219 kw=-0.0555 pf=0.92 Daily=cc29_Util Model=3 status=variable vminpu=0.92 vmaxpu=1.1 

New Load.NTUC_18850_MOD2 bus=RM_18850.1 phases=1 conn=Wye kv=0.219 kw=-0.085 pf=0.92 Daily=cc25_Util Model=2 status=variable vminpu=0.92 vmaxpu=1.1 
New Load.NTUC_18850_MOD3 bus=RM_18850.1 phases=1 conn=Wye kv=0.219 kw=-0.085 pf=0.92 Daily=cc25_Util Model=3 status=variable vminpu=0.92 vmaxpu=1.1 

New Load.NTUC_47424_MOD2 bus=RM_47424.1 phases=1 conn=Wye kv=0.22 kw=-0.36 pf=0.92 Daily=cc30_Util Model=2 status=variable vminpu=0.92 vmaxpu=1.1 
New Load.NTUC_47424_MOD3 bus=RM_47424.1 phases=1 conn=Wye kv=0.22 kw=-0.36 pf=0.92 Daily=cc30_Util Model=3 status=variable vminpu=0.92 vmaxpu=1.1 

New Load.NTUC_17289_MOD2 bus=RM_17289.1 phases=1 conn=Wye kv=0.22 kw=-0.2435 pf=0.92 Daily=cc29_Util Model=2 status=variable vminpu=0.92 vmaxpu=1.1 
New Load.NTUC_17289_MOD3 bus=RM_17289.1 phases=1 conn=Wye kv=0.22 kw=-0.2435 pf=0.92 Daily=cc29_Util Model=3 status=variable vminpu=0.92 vmaxpu=1.1 

New Load.NTUC_31050_MOD2 bus=RM_31050.1.2 phases=1 conn=Delta kv=0.44 kw=-0.582 pf=0.92 Daily=cc30_Util Model=2 status=variable vminpu=0.92 vmaxpu=1.1 
New Load.NTUC_31050_MOD3 bus=RM_31050.1.2 phases=1 conn=Delta kv=0.44 kw=-0.582 pf=0.92 Daily=cc30_Util Model=3 status=variable vminpu=0.92 vmaxpu=1.1 

New Load.NTUC_18857_MOD2 bus=RM_18857.1.2.3 phases=3 conn=Delta kv=0.38 kw=-0.3015 pf=0.92 Daily=cc29_Util Model=2 status=variable vminpu=0.92 vmaxpu=1.1 
New Load.NTUC_18857_MOD3 bus=RM_18857.1.2.3 phases=3 conn=Delta kv=0.38 kw=-0.3015 pf=0.92 Daily=cc29_Util Model=3 status=variable vminpu=0.92 vmaxpu=1.1 

New Load.NTUC_64705_MOD2 bus=RM_64705.1 phases=1 conn=Wye kv=0.22 kw=-0.013 pf=0.92 Daily=cc29_Util Model=2 status=variable vminpu=0.92 vmaxpu=1.1 
New Load.NTUC_64705_MOD3 bus=RM_64705.1 phases=1 conn=Wye kv=0.22 kw=-0.013 pf=0.92 Daily=cc29_Util Model=3 status=variable vminpu=0.92 vmaxpu=1.1 

New Load.NTUC_9282_MOD2 bus=RM_9282.1 phases=1 conn=Wye kv=0.22 kw=-0.3565 pf=0.92 Daily=cc30_Util Model=2 status=variable vminpu=0.92 vmaxpu=1.1 
New Load.NTUC_9282_MOD3 bus=RM_9282.1 phases=1 conn=Wye kv=0.22 kw=-0.3565 pf=0.92 Daily=cc30_Util Model=3 status=variable vminpu=0.92 vmaxpu=1.1 

New Load.NTUC_45396_MOD2 bus=RM_45396.1.2 phases=1 conn=Wye kv=0.22 kw=-0.2885 pf=0.92 Daily=cc17_Util Model=2 status=variable vminpu=0.92 vmaxpu=1.1 
New Load.NTUC_45396_MOD3 bus=RM_45396.1.2 phases=1 conn=Wye kv=0.22 kw=-0.2885 pf=0.92 Daily=cc17_Util Model=3 status=variable vminpu=0.92 vmaxpu=1.1 

New Load.NTUC_66691_MOD2 bus=RM_66691.1 phases=1 conn=Wye kv=0.22 kw=-0.1655 pf=0.92 Daily=cc17_Util Model=2 status=variable vminpu=0.92 vmaxpu=1.1 
New Load.NTUC_66691_MOD3 bus=RM_66691.1 phases=1 conn=Wye kv=0.22 kw=-0.1655 pf=0.92 Daily=cc17_Util Model=3 status=variable vminpu=0.92 vmaxpu=1.1 

New Load.NTUC_53564_MOD2 bus=RM_53564.1 phases=1 conn=Wye kv=0.22 kw=-0.2705 pf=0.92 Daily=cc29_Util Model=2 status=variable vminpu=0.92 vmaxpu=1.1 
New Load.NTUC_53564_MOD3 bus=RM_53564.1 phases=1 conn=Wye kv=0.22 kw=-0.2705 pf=0.92 Daily=cc29_Util Model=3 status=variable vminpu=0.92 vmaxpu=1.1 

New Load.NTUC_71195_MOD2 bus=RM_71195.1 phases=1 conn=Wye kv=0.22 kw=-0.358 pf=0.92 Daily=cc30_Util Model=2 status=variable vminpu=0.92 vmaxpu=1.1 
New Load.NTUC_71195_MOD3 bus=RM_71195.1 phases=1 conn=Wye kv=0.22 kw=-0.358 pf=0.92 Daily=cc30_Util Model=3 status=variable vminpu=0.92 vmaxpu=1.1 

New Load.NTUC_68649_MOD2 bus=RM_68649.1 phases=1 conn=Wye kv=0.22 kw=-0.14 pf=0.92 Daily=cc29_Util Model=2 status=variable vminpu=0.92 vmaxpu=1.1 
New Load.NTUC_68649_MOD3 bus=RM_68649.1 phases=1 conn=Wye kv=0.22 kw=-0.14 pf=0.92 Daily=cc29_Util Model=3 status=variable vminpu=0.92 vmaxpu=1.1 

New Load.NTUC_9218_MOD2 bus=RM_9218.1 phases=1 conn=Wye kv=0.22 kw=-0.2455 pf=0.92 Daily=cc29_Util Model=2 status=variable vminpu=0.92 vmaxpu=1.1 
New Load.NTUC_9218_MOD3 bus=RM_9218.1 phases=1 conn=Wye kv=0.22 kw=-0.2455 pf=0.92 Daily=cc29_Util Model=3 status=variable vminpu=0.92 vmaxpu=1.1 

New Load.NTUC_56722_MOD2 bus=RM_56722.2 phases=1 conn=Wye kv=0.22 kw=-0.212 pf=0.92 Daily=cc29_Util Model=2 status=variable vminpu=0.92 vmaxpu=1.1 
New Load.NTUC_56722_MOD3 bus=RM_56722.2 phases=1 conn=Wye kv=0.22 kw=-0.212 pf=0.92 Daily=cc29_Util Model=3 status=variable vminpu=0.92 vmaxpu=1.1 

New Load.NTUC_55723_MOD2 bus=RM_55723.2 phases=1 conn=Wye kv=0.22 kw=-0.2795 pf=0.92 Daily=cc18_Util Model=2 status=variable vminpu=0.92 vmaxpu=1.1 
New Load.NTUC_55723_MOD3 bus=RM_55723.2 phases=1 conn=Wye kv=0.22 kw=-0.2795 pf=0.92 Daily=cc18_Util Model=3 status=variable vminpu=0.92 vmaxpu=1.1 

New Load.NTUC_9217_MOD2 bus=RM_9217.1 phases=1 conn=Wye kv=0.22 kw=-0.1435 pf=0.92 Daily=cc29_Util Model=2 status=variable vminpu=0.92 vmaxpu=1.1 
New Load.NTUC_9217_MOD3 bus=RM_9217.1 phases=1 conn=Wye kv=0.22 kw=-0.1435 pf=0.92 Daily=cc29_Util Model=3 status=variable vminpu=0.92 vmaxpu=1.1 

New Load.NTUC_27694_MOD2 bus=RM_27694.1.2 phases=1 conn=Delta kv=0.44 kw=-0.312 pf=0.92 Daily=cc29_Util Model=2 status=variable vminpu=0.92 vmaxpu=1.1 
New Load.NTUC_27694_MOD3 bus=RM_27694.1.2 phases=1 conn=Delta kv=0.44 kw=-0.312 pf=0.92 Daily=cc29_Util Model=3 status=variable vminpu=0.92 vmaxpu=1.1 

New Load.NTUC_44199_MOD2 bus=RM_44199.1.2 phases=1 conn=Delta kv=0.44 kw=-0.29 pf=0.92 Daily=cc29_Util Model=2 status=variable vminpu=0.92 vmaxpu=1.1 
New Load.NTUC_44199_MOD3 bus=RM_44199.1.2 phases=1 conn=Delta kv=0.44 kw=-0.29 pf=0.92 Daily=cc29_Util Model=3 status=variable vminpu=0.92 vmaxpu=1.1 

New Load.NTUC_27637_MOD2 bus=RM_27637.1.2 phases=1 conn=Delta kv=0.44 kw=-0.69 pf=0.92 Daily=cc30_Util Model=2 status=variable vminpu=0.92 vmaxpu=1.1 
New Load.NTUC_27637_MOD3 bus=RM_27637.1.2 phases=1 conn=Delta kv=0.44 kw=-0.69 pf=0.92 Daily=cc30_Util Model=3 status=variable vminpu=0.92 vmaxpu=1.1 

New Load.NTUC_44505_MOD2 bus=RM_44505.1.2 phases=1 conn=Delta kv=0.44 kw=-2.202 pf=0.92 Daily=cc32_Util Model=2 status=variable vminpu=0.92 vmaxpu=1.1 
New Load.NTUC_44505_MOD3 bus=RM_44505.1.2 phases=1 conn=Delta kv=0.44 kw=-2.202 pf=0.92 Daily=cc32_Util Model=3 status=variable vminpu=0.92 vmaxpu=1.1 

New Load.NTUC_15077_MOD2 bus=RM_15077.1.2 phases=1 conn=Delta kv=0.44 kw=-0.7725 pf=0.92 Daily=cc30_Util Model=2 status=variable vminpu=0.92 vmaxpu=1.1 
New Load.NTUC_15077_MOD3 bus=RM_15077.1.2 phases=1 conn=Delta kv=0.44 kw=-0.7725 pf=0.92 Daily=cc30_Util Model=3 status=variable vminpu=0.92 vmaxpu=1.1 

New Load.NTUC_23407_MOD2 bus=RM_23407.1.2 phases=1 conn=Delta kv=0.44 kw=-0.632 pf=0.92 Daily=cc30_Util Model=2 status=variable vminpu=0.92 vmaxpu=1.1 
New Load.NTUC_23407_MOD3 bus=RM_23407.1.2 phases=1 conn=Delta kv=0.44 kw=-0.632 pf=0.92 Daily=cc30_Util Model=3 status=variable vminpu=0.92 vmaxpu=1.1 

New Load.NTUC_32955_MOD2 bus=RM_32955.1 phases=1 conn=Wye kv=0.22 kw=-1.2495 pf=0.92 Daily=cc31_Util Model=2 status=variable vminpu=0.92 vmaxpu=1.1 
New Load.NTUC_32955_MOD3 bus=RM_32955.1 phases=1 conn=Wye kv=0.22 kw=-1.2495 pf=0.92 Daily=cc31_Util Model=3 status=variable vminpu=0.92 vmaxpu=1.1 

New Load.NTUC_17104_MOD2 bus=RM_17104.1 phases=1 conn=Wye kv=0.22 kw=-0.2 pf=0.92 Daily=cc17_Util Model=2 status=variable vminpu=0.92 vmaxpu=1.1 
New Load.NTUC_17104_MOD3 bus=RM_17104.1 phases=1 conn=Wye kv=0.22 kw=-0.2 pf=0.92 Daily=cc17_Util Model=3 status=variable vminpu=0.92 vmaxpu=1.1 

New Load.NTUC_68895_MOD2 bus=RM_68895.1 phases=1 conn=Wye kv=0.22 kw=-0.849 pf=0.92 Daily=cc31_Util Model=2 status=variable vminpu=0.92 vmaxpu=1.1 
New Load.NTUC_68895_MOD3 bus=RM_68895.1 phases=1 conn=Wye kv=0.22 kw=-0.849 pf=0.92 Daily=cc31_Util Model=3 status=variable vminpu=0.92 vmaxpu=1.1 

New Load.NTUC_80814_MOD2 bus=RM_80814.1 phases=1 conn=Wye kv=0.22 kw=-0.085 pf=0.92 Daily=cc29_Util Model=2 status=variable vminpu=0.92 vmaxpu=1.1 
New Load.NTUC_80814_MOD3 bus=RM_80814.1 phases=1 conn=Wye kv=0.22 kw=-0.085 pf=0.92 Daily=cc29_Util Model=3 status=variable vminpu=0.92 vmaxpu=1.1 

New Load.NTUC_53803_MOD2 bus=RM_53803.3 phases=1 conn=Wye kv=0.219 kw=-0.3105 pf=0.92 Daily=cc18_Util Model=2 status=variable vminpu=0.92 vmaxpu=1.1 
New Load.NTUC_53803_MOD3 bus=RM_53803.3 phases=1 conn=Wye kv=0.219 kw=-0.3105 pf=0.92 Daily=cc18_Util Model=3 status=variable vminpu=0.92 vmaxpu=1.1 

New Load.NTUC_56554_MOD2 bus=RM_56554.1 phases=1 conn=Wye kv=0.219 kw=-0.4545 pf=0.92 Daily=cc18_Util Model=2 status=variable vminpu=0.92 vmaxpu=1.1 
New Load.NTUC_56554_MOD3 bus=RM_56554.1 phases=1 conn=Wye kv=0.219 kw=-0.4545 pf=0.92 Daily=cc18_Util Model=3 status=variable vminpu=0.92 vmaxpu=1.1 

New Load.NTUC_53704_MOD2 bus=RM_53704.2 phases=1 conn=Wye kv=0.219 kw=-0.418 pf=0.92 Daily=cc18_Util Model=2 status=variable vminpu=0.92 vmaxpu=1.1 
New Load.NTUC_53704_MOD3 bus=RM_53704.2 phases=1 conn=Wye kv=0.219 kw=-0.418 pf=0.92 Daily=cc18_Util Model=3 status=variable vminpu=0.92 vmaxpu=1.1 

New Load.NTUC_41107_MOD2 bus=RM_41107.2 phases=1 conn=Wye kv=0.219 kw=-0.4335 pf=0.92 Daily=cc18_Util Model=2 status=variable vminpu=0.92 vmaxpu=1.1 
New Load.NTUC_41107_MOD3 bus=RM_41107.2 phases=1 conn=Wye kv=0.219 kw=-0.4335 pf=0.92 Daily=cc18_Util Model=3 status=variable vminpu=0.92 vmaxpu=1.1 

New Load.NTUC_23515_MOD2 bus=RM_23515.2 phases=1 conn=Wye kv=0.219 kw=-0.2345 pf=0.92 Daily=cc17_Util Model=2 status=variable vminpu=0.92 vmaxpu=1.1 
New Load.NTUC_23515_MOD3 bus=RM_23515.2 phases=1 conn=Wye kv=0.219 kw=-0.2345 pf=0.92 Daily=cc17_Util Model=3 status=variable vminpu=0.92 vmaxpu=1.1 

New Load.NTUC_63705_MOD2 bus=RM_63705.1 phases=1 conn=Wye kv=0.219 kw=-0.514 pf=0.92 Daily=cc30_Util Model=2 status=variable vminpu=0.92 vmaxpu=1.1 
New Load.NTUC_63705_MOD3 bus=RM_63705.1 phases=1 conn=Wye kv=0.219 kw=-0.514 pf=0.92 Daily=cc30_Util Model=3 status=variable vminpu=0.92 vmaxpu=1.1 

New Load.NTUC_16987_MOD2 bus=RM_16987.2 phases=1 conn=Wye kv=0.219 kw=-0.2915 pf=0.92 Daily=cc18_Util Model=2 status=variable vminpu=0.92 vmaxpu=1.1 
New Load.NTUC_16987_MOD3 bus=RM_16987.2 phases=1 conn=Wye kv=0.219 kw=-0.2915 pf=0.92 Daily=cc18_Util Model=3 status=variable vminpu=0.92 vmaxpu=1.1 

New Load.NTUC_15093_MOD2 bus=RM_15093.1.2 phases=1 conn=Delta kv=0.44 kw=-0.4145 pf=0.92 Daily=cc30_Util Model=2 status=variable vminpu=0.92 vmaxpu=1.1 
New Load.NTUC_15093_MOD3 bus=RM_15093.1.2 phases=1 conn=Delta kv=0.44 kw=-0.4145 pf=0.92 Daily=cc30_Util Model=3 status=variable vminpu=0.92 vmaxpu=1.1 

New Load.NTUC_15083_MOD2 bus=RM_15083.1.2 phases=1 conn=Delta kv=0.44 kw=-0.458 pf=0.92 Daily=cc30_Util Model=2 status=variable vminpu=0.92 vmaxpu=1.1 
New Load.NTUC_15083_MOD3 bus=RM_15083.1.2 phases=1 conn=Delta kv=0.44 kw=-0.458 pf=0.92 Daily=cc30_Util Model=3 status=variable vminpu=0.92 vmaxpu=1.1 

New Load.NTUC_65993_MOD2 bus=RM_65993.1 phases=1 conn=Wye kv=0.22 kw=-0.247 pf=0.92 Daily=cc29_Util Model=2 status=variable vminpu=0.92 vmaxpu=1.1 
New Load.NTUC_65993_MOD3 bus=RM_65993.1 phases=1 conn=Wye kv=0.22 kw=-0.247 pf=0.92 Daily=cc29_Util Model=3 status=variable vminpu=0.92 vmaxpu=1.1 

New Load.NTUC_29912_MOD2 bus=RM_29912.1 phases=1 conn=Wye kv=0.22 kw=-0.212 pf=0.92 Daily=cc29_Util Model=2 status=variable vminpu=0.92 vmaxpu=1.1 
New Load.NTUC_29912_MOD3 bus=RM_29912.1 phases=1 conn=Wye kv=0.22 kw=-0.212 pf=0.92 Daily=cc29_Util Model=3 status=variable vminpu=0.92 vmaxpu=1.1 

New Load.NTUC_84864_MOD2 bus=RM_84864.2 phases=1 conn=Wye kv=0.22 kw=-0.0035 pf=0.92 Daily=cc16_Util Model=2 status=variable vminpu=0.92 vmaxpu=1.1 
New Load.NTUC_84864_MOD3 bus=RM_84864.2 phases=1 conn=Wye kv=0.22 kw=-0.0035 pf=0.92 Daily=cc16_Util Model=3 status=variable vminpu=0.92 vmaxpu=1.1 

New Load.NTUC_56574_MOD2 bus=RM_56574.2 phases=1 conn=Wye kv=0.22 kw=-0.4775 pf=0.92 Daily=cc30_Util Model=2 status=variable vminpu=0.92 vmaxpu=1.1 
New Load.NTUC_56574_MOD3 bus=RM_56574.2 phases=1 conn=Wye kv=0.22 kw=-0.4775 pf=0.92 Daily=cc30_Util Model=3 status=variable vminpu=0.92 vmaxpu=1.1 

New Load.NTUC_17603_MOD2 bus=RM_17603.1 phases=1 conn=Wye kv=0.22 kw=-0.217 pf=0.92 Daily=cc29_Util Model=2 status=variable vminpu=0.92 vmaxpu=1.1 
New Load.NTUC_17603_MOD3 bus=RM_17603.1 phases=1 conn=Wye kv=0.22 kw=-0.217 pf=0.92 Daily=cc29_Util Model=3 status=variable vminpu=0.92 vmaxpu=1.1 

New Load.NTUC_44163_MOD2 bus=RM_44163.2 phases=1 conn=Wye kv=0.22 kw=-0.5305 pf=0.92 Daily=cc30_Util Model=2 status=variable vminpu=0.92 vmaxpu=1.1 
New Load.NTUC_44163_MOD3 bus=RM_44163.2 phases=1 conn=Wye kv=0.22 kw=-0.5305 pf=0.92 Daily=cc30_Util Model=3 status=variable vminpu=0.92 vmaxpu=1.1 

New Load.NTUC_54800_MOD2 bus=RM_54800.2 phases=1 conn=Wye kv=0.22 kw=-0.0955 pf=0.92 Daily=cc29_Util Model=2 status=variable vminpu=0.92 vmaxpu=1.1 
New Load.NTUC_54800_MOD3 bus=RM_54800.2 phases=1 conn=Wye kv=0.22 kw=-0.0955 pf=0.92 Daily=cc29_Util Model=3 status=variable vminpu=0.92 vmaxpu=1.1 

New Load.NTUC_61810_MOD2 bus=RM_61810.2 phases=1 conn=Wye kv=0.22 kw=-0.35 pf=0.92 Daily=cc30_Util Model=2 status=variable vminpu=0.92 vmaxpu=1.1 
New Load.NTUC_61810_MOD3 bus=RM_61810.2 phases=1 conn=Wye kv=0.22 kw=-0.35 pf=0.92 Daily=cc30_Util Model=3 status=variable vminpu=0.92 vmaxpu=1.1 

New Load.NTUC_40287_MOD2 bus=RM_40287.1.2 phases=1 conn=Delta kv=0.44 kw=-0.048 pf=0.92 Daily=cc29_Util Model=2 status=variable vminpu=0.92 vmaxpu=1.1 
New Load.NTUC_40287_MOD3 bus=RM_40287.1.2 phases=1 conn=Delta kv=0.44 kw=-0.048 pf=0.92 Daily=cc29_Util Model=3 status=variable vminpu=0.92 vmaxpu=1.1 

New Load.NTUC_40184_MOD2 bus=RM_40184.1 phases=1 conn=Wye kv=0.22 kw=-0.234 pf=0.92 Daily=cc29_Util Model=2 status=variable vminpu=0.92 vmaxpu=1.1 
New Load.NTUC_40184_MOD3 bus=RM_40184.1 phases=1 conn=Wye kv=0.22 kw=-0.234 pf=0.92 Daily=cc29_Util Model=3 status=variable vminpu=0.92 vmaxpu=1.1 

New Load.NTUC_31045_MOD2 bus=RM_31045.1 phases=1 conn=Wye kv=0.22 kw=-0.7645 pf=0.92 Daily=cc30_Util Model=2 status=variable vminpu=0.92 vmaxpu=1.1 
New Load.NTUC_31045_MOD3 bus=RM_31045.1 phases=1 conn=Wye kv=0.22 kw=-0.7645 pf=0.92 Daily=cc30_Util Model=3 status=variable vminpu=0.92 vmaxpu=1.1 

New Load.NTUC_42011_MOD2 bus=RM_42011.1 phases=1 conn=Wye kv=0.22 kw=-2.6745 pf=0.92 Daily=cc32_Util Model=2 status=variable vminpu=0.92 vmaxpu=1.1 
New Load.NTUC_42011_MOD3 bus=RM_42011.1 phases=1 conn=Wye kv=0.22 kw=-2.6745 pf=0.92 Daily=cc32_Util Model=3 status=variable vminpu=0.92 vmaxpu=1.1 

New Load.NTUC_38489_MOD2 bus=RM_38489.2 phases=1 conn=Wye kv=0.22 kw=-0.3745 pf=0.92 Daily=cc30_Util Model=2 status=variable vminpu=0.92 vmaxpu=1.1 
New Load.NTUC_38489_MOD3 bus=RM_38489.2 phases=1 conn=Wye kv=0.22 kw=-0.3745 pf=0.92 Daily=cc30_Util Model=3 status=variable vminpu=0.92 vmaxpu=1.1 

New Load.NTUC_40828_MOD2 bus=RM_40828.2 phases=1 conn=Wye kv=0.22 kw=-0.363 pf=0.92 Daily=cc30_Util Model=2 status=variable vminpu=0.92 vmaxpu=1.1 
New Load.NTUC_40828_MOD3 bus=RM_40828.2 phases=1 conn=Wye kv=0.22 kw=-0.363 pf=0.92 Daily=cc30_Util Model=3 status=variable vminpu=0.92 vmaxpu=1.1 

New Load.NTUC_9150_MOD2 bus=RM_9150.2 phases=1 conn=Wye kv=0.22 kw=-0.2785 pf=0.92 Daily=cc29_Util Model=2 status=variable vminpu=0.92 vmaxpu=1.1 
New Load.NTUC_9150_MOD3 bus=RM_9150.2 phases=1 conn=Wye kv=0.22 kw=-0.2785 pf=0.92 Daily=cc29_Util Model=3 status=variable vminpu=0.92 vmaxpu=1.1 

New Load.NTUC_44453_MOD2 bus=RM_44453.1 phases=1 conn=Wye kv=0.22 kw=-0.265 pf=0.92 Daily=cc29_Util Model=2 status=variable vminpu=0.92 vmaxpu=1.1 
New Load.NTUC_44453_MOD3 bus=RM_44453.1 phases=1 conn=Wye kv=0.22 kw=-0.265 pf=0.92 Daily=cc29_Util Model=3 status=variable vminpu=0.92 vmaxpu=1.1 

New Load.NTUC_36882_MOD2 bus=RM_36882.2 phases=1 conn=Wye kv=0.22 kw=-0.35 pf=0.92 Daily=cc30_Util Model=2 status=variable vminpu=0.92 vmaxpu=1.1 
New Load.NTUC_36882_MOD3 bus=RM_36882.2 phases=1 conn=Wye kv=0.22 kw=-0.35 pf=0.92 Daily=cc30_Util Model=3 status=variable vminpu=0.92 vmaxpu=1.1 

New Load.NTUC_9117_MOD2 bus=RM_9117.1.2 phases=1 conn=Delta kv=0.44 kw=-0.9125 pf=0.92 Daily=cc31_Util Model=2 status=variable vminpu=0.92 vmaxpu=1.1 
New Load.NTUC_9117_MOD3 bus=RM_9117.1.2 phases=1 conn=Delta kv=0.44 kw=-0.9125 pf=0.92 Daily=cc31_Util Model=3 status=variable vminpu=0.92 vmaxpu=1.1 

New Load.NTUC_9113_MOD2 bus=RM_9113.2 phases=1 conn=Wye kv=0.22 kw=-0.0815 pf=0.92 Daily=cc29_Util Model=2 status=variable vminpu=0.92 vmaxpu=1.1 
New Load.NTUC_9113_MOD3 bus=RM_9113.2 phases=1 conn=Wye kv=0.22 kw=-0.0815 pf=0.92 Daily=cc29_Util Model=3 status=variable vminpu=0.92 vmaxpu=1.1 

New Load.NTUC_34922_MOD2 bus=RM_34922.2 phases=1 conn=Wye kv=0.219 kw=-0.4195 pf=0.92 Daily=cc30_Util Model=2 status=variable vminpu=0.92 vmaxpu=1.1 
New Load.NTUC_34922_MOD3 bus=RM_34922.2 phases=1 conn=Wye kv=0.219 kw=-0.4195 pf=0.92 Daily=cc30_Util Model=3 status=variable vminpu=0.92 vmaxpu=1.1 

New Load.NTUC_10364_MOD2 bus=RM_10364.1.2.3 phases=3 conn=Delta kv=0.38 kw=-0.4725 pf=0.92 Daily=cc30_Util Model=2 status=variable vminpu=0.92 vmaxpu=1.1 
New Load.NTUC_10364_MOD3 bus=RM_10364.1.2.3 phases=3 conn=Delta kv=0.38 kw=-0.4725 pf=0.92 Daily=cc30_Util Model=3 status=variable vminpu=0.92 vmaxpu=1.1 

New Load.NTUC_10363_MOD2 bus=RM_10363.1.2.3 phases=3 conn=Delta kv=0.38 kw=-0.758 pf=0.92 Daily=cc30_Util Model=2 status=variable vminpu=0.92 vmaxpu=1.1 
New Load.NTUC_10363_MOD3 bus=RM_10363.1.2.3 phases=3 conn=Delta kv=0.38 kw=-0.758 pf=0.92 Daily=cc30_Util Model=3 status=variable vminpu=0.92 vmaxpu=1.1 

New Load.NTUC_10365_MOD2 bus=RM_10365.1.2.3 phases=3 conn=Delta kv=0.38 kw=-0.69 pf=0.92 Daily=cc30_Util Model=2 status=variable vminpu=0.92 vmaxpu=1.1 
New Load.NTUC_10365_MOD3 bus=RM_10365.1.2.3 phases=3 conn=Delta kv=0.38 kw=-0.69 pf=0.92 Daily=cc30_Util Model=3 status=variable vminpu=0.92 vmaxpu=1.1 

New Load.NTUC_10362_MOD2 bus=RM_10362.1.2.3 phases=3 conn=Delta kv=0.38 kw=-0.547 pf=0.92 Daily=cc30_Util Model=2 status=variable vminpu=0.92 vmaxpu=1.1 
New Load.NTUC_10362_MOD3 bus=RM_10362.1.2.3 phases=3 conn=Delta kv=0.38 kw=-0.547 pf=0.92 Daily=cc30_Util Model=3 status=variable vminpu=0.92 vmaxpu=1.1 

New Load.NTUC_33656_MOD2 bus=RM_33656.1.2.3 phases=3 conn=Delta kv=0.38 kw=-3.002 pf=0.92 Daily=cc41_Util Model=2 status=variable vminpu=0.92 vmaxpu=1.1 
New Load.NTUC_33656_MOD3 bus=RM_33656.1.2.3 phases=3 conn=Delta kv=0.38 kw=-3.002 pf=0.92 Daily=cc41_Util Model=3 status=variable vminpu=0.92 vmaxpu=1.1 

New Load.NTUC_56424_MOD2 bus=RM_56424.2 phases=1 conn=Wye kv=0.219 kw=-0.3795 pf=0.92 Daily=cc18_Util Model=2 status=variable vminpu=0.92 vmaxpu=1.1 
New Load.NTUC_56424_MOD3 bus=RM_56424.2 phases=1 conn=Wye kv=0.219 kw=-0.3795 pf=0.92 Daily=cc18_Util Model=3 status=variable vminpu=0.92 vmaxpu=1.1 

New Load.NTUC_10359_MOD2 bus=RM_10359.3 phases=1 conn=Wye kv=0.219 kw=-0.2775 pf=0.92 Daily=cc18_Util Model=2 status=variable vminpu=0.92 vmaxpu=1.1 
New Load.NTUC_10359_MOD3 bus=RM_10359.3 phases=1 conn=Wye kv=0.219 kw=-0.2775 pf=0.92 Daily=cc18_Util Model=3 status=variable vminpu=0.92 vmaxpu=1.1 

New Load.NTUC_71658_MOD2 bus=RM_71658.1 phases=1 conn=Wye kv=0.219 kw=-0.7335 pf=0.92 Daily=cc18_Util Model=2 status=variable vminpu=0.92 vmaxpu=1.1 
New Load.NTUC_71658_MOD3 bus=RM_71658.1 phases=1 conn=Wye kv=0.219 kw=-0.7335 pf=0.92 Daily=cc18_Util Model=3 status=variable vminpu=0.92 vmaxpu=1.1 

New Load.NTUC_10355_MOD2 bus=RM_10355.1.2.3 phases=3 conn=Delta kv=0.38 kw=-0.7765 pf=0.92 Daily=cc31_Util Model=2 status=variable vminpu=0.92 vmaxpu=1.1 
New Load.NTUC_10355_MOD3 bus=RM_10355.1.2.3 phases=3 conn=Delta kv=0.38 kw=-0.7765 pf=0.92 Daily=cc31_Util Model=3 status=variable vminpu=0.92 vmaxpu=1.1 

New Load.NTUC_45746_MOD2 bus=RM_45746.1.2.3 phases=3 conn=Delta kv=0.38 kw=-5.474 pf=0.92 Daily=cc32_Util Model=2 status=variable vminpu=0.92 vmaxpu=1.1 
New Load.NTUC_45746_MOD3 bus=RM_45746.1.2.3 phases=3 conn=Delta kv=0.38 kw=-5.474 pf=0.92 Daily=cc32_Util Model=3 status=variable vminpu=0.92 vmaxpu=1.1 

New Load.NTUC_10358_MOD2 bus=RM_10358.1 phases=1 conn=Wye kv=0.219 kw=-0.6745 pf=0.92 Daily=cc30_Util Model=2 status=variable vminpu=0.92 vmaxpu=1.1 
New Load.NTUC_10358_MOD3 bus=RM_10358.1 phases=1 conn=Wye kv=0.219 kw=-0.6745 pf=0.92 Daily=cc30_Util Model=3 status=variable vminpu=0.92 vmaxpu=1.1 

New Load.NTUC_10357_MOD2 bus=RM_10357.1 phases=1 conn=Wye kv=0.219 kw=-0.522 pf=0.92 Daily=cc18_Util Model=2 status=variable vminpu=0.92 vmaxpu=1.1 
New Load.NTUC_10357_MOD3 bus=RM_10357.1 phases=1 conn=Wye kv=0.219 kw=-0.522 pf=0.92 Daily=cc18_Util Model=3 status=variable vminpu=0.92 vmaxpu=1.1 

New Load.NTUC_10356_MOD2 bus=RM_10356.1 phases=1 conn=Wye kv=0.219 kw=-0.3235 pf=0.92 Daily=cc29_Util Model=2 status=variable vminpu=0.92 vmaxpu=1.1 
New Load.NTUC_10356_MOD3 bus=RM_10356.1 phases=1 conn=Wye kv=0.219 kw=-0.3235 pf=0.92 Daily=cc29_Util Model=3 status=variable vminpu=0.92 vmaxpu=1.1 

New Load.NTUC_54687_MOD2 bus=RM_54687.2 phases=1 conn=Wye kv=0.219 kw=-0.2935 pf=0.92 Daily=cc29_Util Model=2 status=variable vminpu=0.92 vmaxpu=1.1 
New Load.NTUC_54687_MOD3 bus=RM_54687.2 phases=1 conn=Wye kv=0.219 kw=-0.2935 pf=0.92 Daily=cc29_Util Model=3 status=variable vminpu=0.92 vmaxpu=1.1 

New Load.NTUC_10354_MOD2 bus=RM_10354.3 phases=1 conn=Wye kv=0.219 kw=-0.404 pf=0.92 Daily=cc18_Util Model=2 status=variable vminpu=0.92 vmaxpu=1.1 
New Load.NTUC_10354_MOD3 bus=RM_10354.3 phases=1 conn=Wye kv=0.219 kw=-0.404 pf=0.92 Daily=cc18_Util Model=3 status=variable vminpu=0.92 vmaxpu=1.1 

New Load.NTUC_70331_MOD2 bus=RM_70331.1 phases=1 conn=Wye kv=0.22 kw=-0.153 pf=0.92 Daily=cc25_Util Model=2 status=variable vminpu=0.92 vmaxpu=1.1 
New Load.NTUC_70331_MOD3 bus=RM_70331.1 phases=1 conn=Wye kv=0.22 kw=-0.153 pf=0.92 Daily=cc25_Util Model=3 status=variable vminpu=0.92 vmaxpu=1.1 

New Load.NTUC_17699_MOD2 bus=RM_17699.1 phases=1 conn=Wye kv=0.22 kw=-0.4065 pf=0.92 Daily=cc30_Util Model=2 status=variable vminpu=0.92 vmaxpu=1.1 
New Load.NTUC_17699_MOD3 bus=RM_17699.1 phases=1 conn=Wye kv=0.22 kw=-0.4065 pf=0.92 Daily=cc30_Util Model=3 status=variable vminpu=0.92 vmaxpu=1.1 

New Load.NTUC_17680_MOD2 bus=RM_17680.2 phases=1 conn=Wye kv=0.22 kw=-0.137 pf=0.92 Daily=cc29_Util Model=2 status=variable vminpu=0.92 vmaxpu=1.1 
New Load.NTUC_17680_MOD3 bus=RM_17680.2 phases=1 conn=Wye kv=0.22 kw=-0.137 pf=0.92 Daily=cc29_Util Model=3 status=variable vminpu=0.92 vmaxpu=1.1 

New Load.NTUC_25755_MOD2 bus=RM_25755.2 phases=1 conn=Wye kv=0.22 kw=-0.07 pf=0.92 Daily=cc29_Util Model=2 status=variable vminpu=0.92 vmaxpu=1.1 
New Load.NTUC_25755_MOD3 bus=RM_25755.2 phases=1 conn=Wye kv=0.22 kw=-0.07 pf=0.92 Daily=cc29_Util Model=3 status=variable vminpu=0.92 vmaxpu=1.1 

New Load.NTUC_17693_MOD2 bus=RM_17693.1.2.3 phases=3 conn=Delta kv=0.38 kw=-0.3485 pf=0.92 Daily=cc30_Util Model=2 status=variable vminpu=0.92 vmaxpu=1.1 
New Load.NTUC_17693_MOD3 bus=RM_17693.1.2.3 phases=3 conn=Delta kv=0.38 kw=-0.3485 pf=0.92 Daily=cc30_Util Model=3 status=variable vminpu=0.92 vmaxpu=1.1 

New Load.NTUC_9166_MOD2 bus=RM_9166.1.2 phases=1 conn=Delta kv=0.44 kw=-1.5125 pf=0.92 Daily=cc32_Util Model=2 status=variable vminpu=0.92 vmaxpu=1.1 
New Load.NTUC_9166_MOD3 bus=RM_9166.1.2 phases=1 conn=Delta kv=0.44 kw=-1.5125 pf=0.92 Daily=cc32_Util Model=3 status=variable vminpu=0.92 vmaxpu=1.1 

New Load.NTUC_45888_MOD2 bus=RM_45888.1 phases=1 conn=Wye kv=0.22 kw=-0.0335 pf=0.92 Daily=cc29_Util Model=2 status=variable vminpu=0.92 vmaxpu=1.1 
New Load.NTUC_45888_MOD3 bus=RM_45888.1 phases=1 conn=Wye kv=0.22 kw=-0.0335 pf=0.92 Daily=cc29_Util Model=3 status=variable vminpu=0.92 vmaxpu=1.1 

New Load.NTUC_54328_MOD2 bus=RM_54328.1 phases=1 conn=Wye kv=0.22 kw=-0.048 pf=0.92 Daily=cc29_Util Model=2 status=variable vminpu=0.92 vmaxpu=1.1 
New Load.NTUC_54328_MOD3 bus=RM_54328.1 phases=1 conn=Wye kv=0.22 kw=-0.048 pf=0.92 Daily=cc29_Util Model=3 status=variable vminpu=0.92 vmaxpu=1.1 

New Load.NTUC_9152_MOD2 bus=RM_9152.2 phases=1 conn=Wye kv=0.22 kw=-0.448 pf=0.92 Daily=cc30_Util Model=2 status=variable vminpu=0.92 vmaxpu=1.1 
New Load.NTUC_9152_MOD3 bus=RM_9152.2 phases=1 conn=Wye kv=0.22 kw=-0.448 pf=0.92 Daily=cc30_Util Model=3 status=variable vminpu=0.92 vmaxpu=1.1 

New Load.NTUC_9155_MOD2 bus=RM_9155.2 phases=1 conn=Wye kv=0.22 kw=-0.5855 pf=0.92 Daily=cc30_Util Model=2 status=variable vminpu=0.92 vmaxpu=1.1 
New Load.NTUC_9155_MOD3 bus=RM_9155.2 phases=1 conn=Wye kv=0.22 kw=-0.5855 pf=0.92 Daily=cc30_Util Model=3 status=variable vminpu=0.92 vmaxpu=1.1 

New Load.NTUC_17511_MOD2 bus=RM_17511.1.2 phases=1 conn=Delta kv=0.44 kw=-0.598 pf=0.92 Daily=cc18_Util Model=2 status=variable vminpu=0.92 vmaxpu=1.1 
New Load.NTUC_17511_MOD3 bus=RM_17511.1.2 phases=1 conn=Delta kv=0.44 kw=-0.598 pf=0.92 Daily=cc18_Util Model=3 status=variable vminpu=0.92 vmaxpu=1.1 

New Load.NTUC_31065_MOD2 bus=RM_31065.2 phases=1 conn=Wye kv=0.22 kw=-0.293 pf=0.92 Daily=cc18_Util Model=2 status=variable vminpu=0.92 vmaxpu=1.1 
New Load.NTUC_31065_MOD3 bus=RM_31065.2 phases=1 conn=Wye kv=0.22 kw=-0.293 pf=0.92 Daily=cc18_Util Model=3 status=variable vminpu=0.92 vmaxpu=1.1 

New Load.NTUC_17559_MOD2 bus=RM_17559.1.2 phases=1 conn=Delta kv=0.44 kw=-0.155 pf=0.92 Daily=cc29_Util Model=2 status=variable vminpu=0.92 vmaxpu=1.1 
New Load.NTUC_17559_MOD3 bus=RM_17559.1.2 phases=1 conn=Delta kv=0.44 kw=-0.155 pf=0.92 Daily=cc29_Util Model=3 status=variable vminpu=0.92 vmaxpu=1.1 

New Load.NTUC_32426_MOD2 bus=RM_32426.1 phases=1 conn=Wye kv=0.22 kw=-0.2895 pf=0.92 Daily=cc18_Util Model=2 status=variable vminpu=0.92 vmaxpu=1.1 
New Load.NTUC_32426_MOD3 bus=RM_32426.1 phases=1 conn=Wye kv=0.22 kw=-0.2895 pf=0.92 Daily=cc18_Util Model=3 status=variable vminpu=0.92 vmaxpu=1.1 

New Load.NTUC_29928_MOD2 bus=RM_29928.1 phases=1 conn=Wye kv=0.22 kw=-0.2625 pf=0.92 Daily=cc17_Util Model=2 status=variable vminpu=0.92 vmaxpu=1.1 
New Load.NTUC_29928_MOD3 bus=RM_29928.1 phases=1 conn=Wye kv=0.22 kw=-0.2625 pf=0.92 Daily=cc17_Util Model=3 status=variable vminpu=0.92 vmaxpu=1.1 

New Load.NTUC_54783_MOD2 bus=RM_54783.1 phases=1 conn=Wye kv=0.22 kw=-0.381 pf=0.92 Daily=cc30_Util Model=2 status=variable vminpu=0.92 vmaxpu=1.1 
New Load.NTUC_54783_MOD3 bus=RM_54783.1 phases=1 conn=Wye kv=0.22 kw=-0.381 pf=0.92 Daily=cc30_Util Model=3 status=variable vminpu=0.92 vmaxpu=1.1 

New Load.NTUC_9237_MOD2 bus=RM_9237.3 phases=1 conn=Wye kv=0.219 kw=-0.7405 pf=0.92 Daily=cc18_Util Model=2 status=variable vminpu=0.92 vmaxpu=1.1 
New Load.NTUC_9237_MOD3 bus=RM_9237.3 phases=1 conn=Wye kv=0.219 kw=-0.7405 pf=0.92 Daily=cc18_Util Model=3 status=variable vminpu=0.92 vmaxpu=1.1 

New Load.NTUC_55724_MOD2 bus=RM_55724.1 phases=1 conn=Wye kv=0.219 kw=-0.2705 pf=0.92 Daily=cc29_Util Model=2 status=variable vminpu=0.92 vmaxpu=1.1 
New Load.NTUC_55724_MOD3 bus=RM_55724.1 phases=1 conn=Wye kv=0.219 kw=-0.2705 pf=0.92 Daily=cc29_Util Model=3 status=variable vminpu=0.92 vmaxpu=1.1 

New Load.NTUC_9255_MOD2 bus=RM_9255.1.2.3 phases=3 conn=Delta kv=0.38 kw=-0.317 pf=0.92 Daily=cc18_Util Model=2 status=variable vminpu=0.92 vmaxpu=1.1 
New Load.NTUC_9255_MOD3 bus=RM_9255.1.2.3 phases=3 conn=Delta kv=0.38 kw=-0.317 pf=0.92 Daily=cc18_Util Model=3 status=variable vminpu=0.92 vmaxpu=1.1 

New Load.NTUC_34796_MOD2 bus=RM_34796.2 phases=1 conn=Wye kv=0.22 kw=-0.4145 pf=0.92 Daily=cc18_Util Model=2 status=variable vminpu=0.92 vmaxpu=1.1 
New Load.NTUC_34796_MOD3 bus=RM_34796.2 phases=1 conn=Wye kv=0.22 kw=-0.4145 pf=0.92 Daily=cc18_Util Model=3 status=variable vminpu=0.92 vmaxpu=1.1 

New Load.NTUC_30319_MOD2 bus=RM_30319.1 phases=1 conn=Wye kv=0.22 kw=-0.046 pf=0.92 Daily=cc16_Util Model=2 status=variable vminpu=0.92 vmaxpu=1.1 
New Load.NTUC_30319_MOD3 bus=RM_30319.1 phases=1 conn=Wye kv=0.22 kw=-0.046 pf=0.92 Daily=cc16_Util Model=3 status=variable vminpu=0.92 vmaxpu=1.1 

New Load.NTUC_41314_MOD2 bus=RM_41314.1 phases=1 conn=Wye kv=0.22 kw=-0.3665 pf=0.92 Daily=cc30_Util Model=2 status=variable vminpu=0.92 vmaxpu=1.1 
New Load.NTUC_41314_MOD3 bus=RM_41314.1 phases=1 conn=Wye kv=0.22 kw=-0.3665 pf=0.92 Daily=cc30_Util Model=3 status=variable vminpu=0.92 vmaxpu=1.1 

New Load.NTUC_78396_MOD2 bus=RM_78396.1 phases=1 conn=Wye kv=0.22 kw=-0.1205 pf=0.92 Daily=cc16_Util Model=2 status=variable vminpu=0.92 vmaxpu=1.1 
New Load.NTUC_78396_MOD3 bus=RM_78396.1 phases=1 conn=Wye kv=0.22 kw=-0.1205 pf=0.92 Daily=cc16_Util Model=3 status=variable vminpu=0.92 vmaxpu=1.1 

New Load.NTUC_47054_MOD2 bus=RM_47054.1 phases=1 conn=Wye kv=0.22 kw=-0.225 pf=0.92 Daily=cc29_Util Model=2 status=variable vminpu=0.92 vmaxpu=1.1 
New Load.NTUC_47054_MOD3 bus=RM_47054.1 phases=1 conn=Wye kv=0.22 kw=-0.225 pf=0.92 Daily=cc29_Util Model=3 status=variable vminpu=0.92 vmaxpu=1.1 

New Load.NTUC_70013_MOD2 bus=RM_70013.1 phases=1 conn=Wye kv=0.22 kw=-0.5025 pf=0.92 Daily=cc18_Util Model=2 status=variable vminpu=0.92 vmaxpu=1.1 
New Load.NTUC_70013_MOD3 bus=RM_70013.1 phases=1 conn=Wye kv=0.22 kw=-0.5025 pf=0.92 Daily=cc18_Util Model=3 status=variable vminpu=0.92 vmaxpu=1.1 

New Load.NTUC_17226_MOD2 bus=RM_17226.1.2 phases=1 conn=Delta kv=0.44 kw=-1.3025 pf=0.92 Daily=cc31_Util Model=2 status=variable vminpu=0.92 vmaxpu=1.1 
New Load.NTUC_17226_MOD3 bus=RM_17226.1.2 phases=1 conn=Delta kv=0.44 kw=-1.3025 pf=0.92 Daily=cc31_Util Model=3 status=variable vminpu=0.92 vmaxpu=1.1 

New Load.NTUC_72165_MOD2 bus=RM_72165.1.2 phases=1 conn=Delta kv=0.44 kw=-2.7765 pf=0.92 Daily=cc32_Util Model=2 status=variable vminpu=0.92 vmaxpu=1.1 
New Load.NTUC_72165_MOD3 bus=RM_72165.1.2 phases=1 conn=Delta kv=0.44 kw=-2.7765 pf=0.92 Daily=cc32_Util Model=3 status=variable vminpu=0.92 vmaxpu=1.1 

New Load.NTUC_19359_MOD2 bus=RM_19359.1.2 phases=1 conn=Delta kv=0.44 kw=-1.172 pf=0.92 Daily=cc31_Util Model=2 status=variable vminpu=0.92 vmaxpu=1.1 
New Load.NTUC_19359_MOD3 bus=RM_19359.1.2 phases=1 conn=Delta kv=0.44 kw=-1.172 pf=0.92 Daily=cc31_Util Model=3 status=variable vminpu=0.92 vmaxpu=1.1 

New Load.NTUC_54796_MOD2 bus=RM_54796.1 phases=1 conn=Wye kv=0.22 kw=-0.1285 pf=0.92 Daily=cc16_Util Model=2 status=variable vminpu=0.92 vmaxpu=1.1 
New Load.NTUC_54796_MOD3 bus=RM_54796.1 phases=1 conn=Wye kv=0.22 kw=-0.1285 pf=0.92 Daily=cc16_Util Model=3 status=variable vminpu=0.92 vmaxpu=1.1 

New Load.NTUC_23525_MOD2 bus=RM_23525.1.2 phases=1 conn=Delta kv=0.44 kw=-0.0015 pf=0.92 Daily=cc29_Util Model=2 status=variable vminpu=0.92 vmaxpu=1.1 
New Load.NTUC_23525_MOD3 bus=RM_23525.1.2 phases=1 conn=Delta kv=0.44 kw=-0.0015 pf=0.92 Daily=cc29_Util Model=3 status=variable vminpu=0.92 vmaxpu=1.1 

New Load.NTUC_34824_MOD2 bus=RM_34824.1 phases=1 conn=Wye kv=0.22 kw=-0.08 pf=0.92 Daily=cc29_Util Model=2 status=variable vminpu=0.92 vmaxpu=1.1 
New Load.NTUC_34824_MOD3 bus=RM_34824.1 phases=1 conn=Wye kv=0.22 kw=-0.08 pf=0.92 Daily=cc29_Util Model=3 status=variable vminpu=0.92 vmaxpu=1.1 

New Load.NTUC_17242_MOD2 bus=RM_17242.1.2 phases=1 conn=Delta kv=0.44 kw=-0.705 pf=0.92 Daily=cc30_Util Model=2 status=variable vminpu=0.92 vmaxpu=1.1 
New Load.NTUC_17242_MOD3 bus=RM_17242.1.2 phases=1 conn=Delta kv=0.44 kw=-0.705 pf=0.92 Daily=cc30_Util Model=3 status=variable vminpu=0.92 vmaxpu=1.1 

New Load.NTUC_49544_MOD2 bus=RM_49544.1.2 phases=1 conn=Delta kv=0.44 kw=-1.524 pf=0.92 Daily=cc32_Util Model=2 status=variable vminpu=0.92 vmaxpu=1.1 
New Load.NTUC_49544_MOD3 bus=RM_49544.1.2 phases=1 conn=Delta kv=0.44 kw=-1.524 pf=0.92 Daily=cc32_Util Model=3 status=variable vminpu=0.92 vmaxpu=1.1 

New Load.NTUC_17298_MOD2 bus=RM_17298.1.2 phases=1 conn=Delta kv=0.44 kw=-0.0905 pf=0.92 Daily=cc29_Util Model=2 status=variable vminpu=0.92 vmaxpu=1.1 
New Load.NTUC_17298_MOD3 bus=RM_17298.1.2 phases=1 conn=Delta kv=0.44 kw=-0.0905 pf=0.92 Daily=cc29_Util Model=3 status=variable vminpu=0.92 vmaxpu=1.1 

New Load.NTUC_27892_MOD2 bus=RM_27892.1 phases=1 conn=Wye kv=0.22 kw=-0.3195 pf=0.92 Daily=cc18_Util Model=2 status=variable vminpu=0.92 vmaxpu=1.1 
New Load.NTUC_27892_MOD3 bus=RM_27892.1 phases=1 conn=Wye kv=0.22 kw=-0.3195 pf=0.92 Daily=cc18_Util Model=3 status=variable vminpu=0.92 vmaxpu=1.1 

New Load.NTUC_17294_MOD2 bus=RM_17294.1.2 phases=1 conn=Delta kv=0.44 kw=-0.1935 pf=0.92 Daily=cc29_Util Model=2 status=variable vminpu=0.92 vmaxpu=1.1 
New Load.NTUC_17294_MOD3 bus=RM_17294.1.2 phases=1 conn=Delta kv=0.44 kw=-0.1935 pf=0.92 Daily=cc29_Util Model=3 status=variable vminpu=0.92 vmaxpu=1.1 

New Load.NTUC_34059_MOD2 bus=RM_34059.1.2 phases=1 conn=Delta kv=0.44 kw=-0.5455 pf=0.92 Daily=cc30_Util Model=2 status=variable vminpu=0.92 vmaxpu=1.1 
New Load.NTUC_34059_MOD3 bus=RM_34059.1.2 phases=1 conn=Delta kv=0.44 kw=-0.5455 pf=0.92 Daily=cc30_Util Model=3 status=variable vminpu=0.92 vmaxpu=1.1 

New Load.NTUC_17239_MOD2 bus=RM_17239.1.2 phases=1 conn=Delta kv=0.44 kw=-0.2825 pf=0.92 Daily=cc18_Util Model=2 status=variable vminpu=0.92 vmaxpu=1.1 
New Load.NTUC_17239_MOD3 bus=RM_17239.1.2 phases=1 conn=Delta kv=0.44 kw=-0.2825 pf=0.92 Daily=cc18_Util Model=3 status=variable vminpu=0.92 vmaxpu=1.1 

New Load.NTUC_80794_MOD2 bus=RM_80794.2 phases=1 conn=Wye kv=0.22 kw=-0.142 pf=0.92 Daily=cc29_Util Model=2 status=variable vminpu=0.92 vmaxpu=1.1 
New Load.NTUC_80794_MOD3 bus=RM_80794.2 phases=1 conn=Wye kv=0.22 kw=-0.142 pf=0.92 Daily=cc29_Util Model=3 status=variable vminpu=0.92 vmaxpu=1.1 

New Load.NTUC_17240_MOD2 bus=RM_17240.1.2 phases=1 conn=Delta kv=0.44 kw=-0.314 pf=0.92 Daily=cc29_Util Model=2 status=variable vminpu=0.92 vmaxpu=1.1 
New Load.NTUC_17240_MOD3 bus=RM_17240.1.2 phases=1 conn=Delta kv=0.44 kw=-0.314 pf=0.92 Daily=cc29_Util Model=3 status=variable vminpu=0.92 vmaxpu=1.1 

New Load.NTUC_31049_MOD2 bus=RM_31049.1.2 phases=1 conn=Delta kv=0.44 kw=-0.421 pf=0.92 Daily=cc30_Util Model=2 status=variable vminpu=0.92 vmaxpu=1.1 
New Load.NTUC_31049_MOD3 bus=RM_31049.1.2 phases=1 conn=Delta kv=0.44 kw=-0.421 pf=0.92 Daily=cc30_Util Model=3 status=variable vminpu=0.92 vmaxpu=1.1 

New Load.NTUC_55408_MOD2 bus=RM_55408.1.2 phases=1 conn=Delta kv=0.44 kw=-0.5545 pf=0.92 Daily=cc18_Util Model=2 status=variable vminpu=0.92 vmaxpu=1.1 
New Load.NTUC_55408_MOD3 bus=RM_55408.1.2 phases=1 conn=Delta kv=0.44 kw=-0.5545 pf=0.92 Daily=cc18_Util Model=3 status=variable vminpu=0.92 vmaxpu=1.1 

New Load.NTUC_84847_MOD2 bus=RM_84847.1.2.3 phases=3 conn=Delta kv=0.38 kw=-1.223 pf=0.92 Daily=cc31_Util Model=2 status=variable vminpu=0.92 vmaxpu=1.1 
New Load.NTUC_84847_MOD3 bus=RM_84847.1.2.3 phases=3 conn=Delta kv=0.38 kw=-1.223 pf=0.92 Daily=cc31_Util Model=3 status=variable vminpu=0.92 vmaxpu=1.1 

New Load.NTUC_65986_MOD2 bus=RM_65986.1 phases=1 conn=Wye kv=0.219 kw=-0.4645 pf=0.92 Daily=cc30_Util Model=2 status=variable vminpu=0.92 vmaxpu=1.1 
New Load.NTUC_65986_MOD3 bus=RM_65986.1 phases=1 conn=Wye kv=0.219 kw=-0.4645 pf=0.92 Daily=cc30_Util Model=3 status=variable vminpu=0.92 vmaxpu=1.1 

New Load.NTUC_40267_MOD2 bus=RM_40267.1.2 phases=1 conn=Delta kv=0.44 kw=-0.938 pf=0.92 Daily=cc31_Util Model=2 status=variable vminpu=0.92 vmaxpu=1.1 
New Load.NTUC_40267_MOD3 bus=RM_40267.1.2 phases=1 conn=Delta kv=0.44 kw=-0.938 pf=0.92 Daily=cc31_Util Model=3 status=variable vminpu=0.92 vmaxpu=1.1 

New Load.NTUC_42438_MOD2 bus=RM_42438.1.2.3 phases=3 conn=Delta kv=0.38 kw=-0.605 pf=0.92 Daily=cc18_Util Model=2 status=variable vminpu=0.92 vmaxpu=1.1 
New Load.NTUC_42438_MOD3 bus=RM_42438.1.2.3 phases=3 conn=Delta kv=0.38 kw=-0.605 pf=0.92 Daily=cc18_Util Model=3 status=variable vminpu=0.92 vmaxpu=1.1 

New Load.NTUC_19344_MOD2 bus=RM_19344.1.2 phases=1 conn=Delta kv=0.44 kw=-1.856 pf=0.92 Daily=cc32_Util Model=2 status=variable vminpu=0.92 vmaxpu=1.1 
New Load.NTUC_19344_MOD3 bus=RM_19344.1.2 phases=1 conn=Delta kv=0.44 kw=-1.856 pf=0.92 Daily=cc32_Util Model=3 status=variable vminpu=0.92 vmaxpu=1.1 

New Load.NTUC_19342_MOD2 bus=RM_19342.1.2 phases=1 conn=Delta kv=0.44 kw=-0.569 pf=0.92 Daily=cc30_Util Model=2 status=variable vminpu=0.92 vmaxpu=1.1 
New Load.NTUC_19342_MOD3 bus=RM_19342.1.2 phases=1 conn=Delta kv=0.44 kw=-0.569 pf=0.92 Daily=cc30_Util Model=3 status=variable vminpu=0.92 vmaxpu=1.1 

New Load.NTUC_19343_MOD2 bus=RM_19343.1.2 phases=1 conn=Delta kv=0.44 kw=-0.35 pf=0.92 Daily=cc30_Util Model=2 status=variable vminpu=0.92 vmaxpu=1.1 
New Load.NTUC_19343_MOD3 bus=RM_19343.1.2 phases=1 conn=Delta kv=0.44 kw=-0.35 pf=0.92 Daily=cc30_Util Model=3 status=variable vminpu=0.92 vmaxpu=1.1 

New Load.NTUC_19340_MOD2 bus=RM_19340.1.2 phases=1 conn=Delta kv=0.44 kw=-0.718 pf=0.92 Daily=cc30_Util Model=2 status=variable vminpu=0.92 vmaxpu=1.1 
New Load.NTUC_19340_MOD3 bus=RM_19340.1.2 phases=1 conn=Delta kv=0.44 kw=-0.718 pf=0.92 Daily=cc30_Util Model=3 status=variable vminpu=0.92 vmaxpu=1.1 

New Load.NTUC_17234_MOD2 bus=RM_17234.1.3 phases=1 conn=Delta kv=0.38 kw=-0.6165 pf=0.92 Daily=cc30_Util Model=2 status=variable vminpu=0.92 vmaxpu=1.1 
New Load.NTUC_17234_MOD3 bus=RM_17234.1.3 phases=1 conn=Delta kv=0.38 kw=-0.6165 pf=0.92 Daily=cc30_Util Model=3 status=variable vminpu=0.92 vmaxpu=1.1 

New Load.NTUC_17233_MOD2 bus=RM_17233.1.2.3 phases=3 conn=Delta kv=0.38 kw=-0.4185 pf=0.92 Daily=cc25_Util Model=2 status=variable vminpu=0.92 vmaxpu=1.1 
New Load.NTUC_17233_MOD3 bus=RM_17233.1.2.3 phases=3 conn=Delta kv=0.38 kw=-0.4185 pf=0.92 Daily=cc25_Util Model=3 status=variable vminpu=0.92 vmaxpu=1.1 

New Load.NTUC_17232_MOD2 bus=RM_17232.1.2.3 phases=3 conn=Delta kv=0.38 kw=-0.541 pf=0.92 Daily=cc18_Util Model=2 status=variable vminpu=0.92 vmaxpu=1.1 
New Load.NTUC_17232_MOD3 bus=RM_17232.1.2.3 phases=3 conn=Delta kv=0.38 kw=-0.541 pf=0.92 Daily=cc18_Util Model=3 status=variable vminpu=0.92 vmaxpu=1.1 

New Load.NTUC_17237_MOD2 bus=RM_17237.1.2 phases=1 conn=Delta kv=0.44 kw=-0.796 pf=0.92 Daily=cc31_Util Model=2 status=variable vminpu=0.92 vmaxpu=1.1 
New Load.NTUC_17237_MOD3 bus=RM_17237.1.2 phases=1 conn=Delta kv=0.44 kw=-0.796 pf=0.92 Daily=cc31_Util Model=3 status=variable vminpu=0.92 vmaxpu=1.1 

New Load.NTUC_17246_MOD2 bus=RM_17246.1.2 phases=1 conn=Delta kv=0.44 kw=-0.337 pf=0.92 Daily=cc30_Util Model=2 status=variable vminpu=0.92 vmaxpu=1.1 
New Load.NTUC_17246_MOD3 bus=RM_17246.1.2 phases=1 conn=Delta kv=0.44 kw=-0.337 pf=0.92 Daily=cc30_Util Model=3 status=variable vminpu=0.92 vmaxpu=1.1 

New Load.NTUC_19333_MOD2 bus=RM_19333.1.2 phases=1 conn=Delta kv=0.44 kw=-0.6795 pf=0.92 Daily=cc30_Util Model=2 status=variable vminpu=0.92 vmaxpu=1.1 
New Load.NTUC_19333_MOD3 bus=RM_19333.1.2 phases=1 conn=Delta kv=0.44 kw=-0.6795 pf=0.92 Daily=cc30_Util Model=3 status=variable vminpu=0.92 vmaxpu=1.1 

New Load.NTUC_19331_MOD2 bus=RM_19331.1.2 phases=1 conn=Delta kv=0.44 kw=-0.4855 pf=0.92 Daily=cc30_Util Model=2 status=variable vminpu=0.92 vmaxpu=1.1 
New Load.NTUC_19331_MOD3 bus=RM_19331.1.2 phases=1 conn=Delta kv=0.44 kw=-0.4855 pf=0.92 Daily=cc30_Util Model=3 status=variable vminpu=0.92 vmaxpu=1.1 

New Load.NTUC_19332_MOD2 bus=RM_19332.1.2 phases=1 conn=Delta kv=0.44 kw=-0.217 pf=0.92 Daily=cc29_Util Model=2 status=variable vminpu=0.92 vmaxpu=1.1 
New Load.NTUC_19332_MOD3 bus=RM_19332.1.2 phases=1 conn=Delta kv=0.44 kw=-0.217 pf=0.92 Daily=cc29_Util Model=3 status=variable vminpu=0.92 vmaxpu=1.1 

New Load.NTUC_33844_MOD2 bus=RM_33844.1.2 phases=1 conn=Delta kv=0.44 kw=-0.668 pf=0.92 Daily=cc30_Util Model=2 status=variable vminpu=0.92 vmaxpu=1.1 
New Load.NTUC_33844_MOD3 bus=RM_33844.1.2 phases=1 conn=Delta kv=0.44 kw=-0.668 pf=0.92 Daily=cc30_Util Model=3 status=variable vminpu=0.92 vmaxpu=1.1 

New Load.NTUC_49510_MOD2 bus=RM_49510.2 phases=1 conn=Wye kv=0.22 kw=-0.1915 pf=0.92 Daily=cc29_Util Model=2 status=variable vminpu=0.92 vmaxpu=1.1 
New Load.NTUC_49510_MOD3 bus=RM_49510.2 phases=1 conn=Wye kv=0.22 kw=-0.1915 pf=0.92 Daily=cc29_Util Model=3 status=variable vminpu=0.92 vmaxpu=1.1 

New Load.NTUC_9156_MOD2 bus=RM_9156.1.2 phases=1 conn=Delta kv=0.44 kw=-0.62 pf=0.92 Daily=cc30_Util Model=2 status=variable vminpu=0.92 vmaxpu=1.1 
New Load.NTUC_9156_MOD3 bus=RM_9156.1.2 phases=1 conn=Delta kv=0.44 kw=-0.62 pf=0.92 Daily=cc30_Util Model=3 status=variable vminpu=0.92 vmaxpu=1.1 

New Load.NTUC_17236_MOD2 bus=RM_17236.1.2 phases=1 conn=Delta kv=0.44 kw=-0.8095 pf=0.92 Daily=cc30_Util Model=2 status=variable vminpu=0.92 vmaxpu=1.1 
New Load.NTUC_17236_MOD3 bus=RM_17236.1.2 phases=1 conn=Delta kv=0.44 kw=-0.8095 pf=0.92 Daily=cc30_Util Model=3 status=variable vminpu=0.92 vmaxpu=1.1 

New Load.NTUC_42284_MOD2 bus=RM_42284.2 phases=1 conn=Wye kv=0.22 kw=-0.0985 pf=0.92 Daily=cc29_Util Model=2 status=variable vminpu=0.92 vmaxpu=1.1 
New Load.NTUC_42284_MOD3 bus=RM_42284.2 phases=1 conn=Wye kv=0.22 kw=-0.0985 pf=0.92 Daily=cc29_Util Model=3 status=variable vminpu=0.92 vmaxpu=1.1 

New Load.NTUC_54204_MOD2 bus=RM_54204.1.2.3 phases=3 conn=Delta kv=0.38 kw=-0.1415 pf=0.92 Daily=cc32_Util Model=2 status=variable vminpu=0.92 vmaxpu=1.1 
New Load.NTUC_54204_MOD3 bus=RM_54204.1.2.3 phases=3 conn=Delta kv=0.38 kw=-0.1415 pf=0.92 Daily=cc32_Util Model=3 status=variable vminpu=0.92 vmaxpu=1.1 

New Load.NTUC_17205_MOD2 bus=RM_17205.1.2 phases=1 conn=Delta kv=0.38 kw=-1.182 pf=0.92 Daily=cc31_Util Model=2 status=variable vminpu=0.92 vmaxpu=1.1 
New Load.NTUC_17205_MOD3 bus=RM_17205.1.2 phases=1 conn=Delta kv=0.38 kw=-1.182 pf=0.92 Daily=cc31_Util Model=3 status=variable vminpu=0.92 vmaxpu=1.1 

New Load.NTUC_17675_MOD2 bus=RM_17675.1 phases=1 conn=Wye kv=0.219 kw=-0.3695 pf=0.92 Daily=cc30_Util Model=2 status=variable vminpu=0.92 vmaxpu=1.1 
New Load.NTUC_17675_MOD3 bus=RM_17675.1 phases=1 conn=Wye kv=0.219 kw=-0.3695 pf=0.92 Daily=cc30_Util Model=3 status=variable vminpu=0.92 vmaxpu=1.1 

New Load.NTUC_84857_MOD2 bus=RM_84857.1.2.3 phases=3 conn=Delta kv=0.38 kw=-0.045 pf=0.92 Daily=cc25_Util Model=2 status=variable vminpu=0.92 vmaxpu=1.1 
New Load.NTUC_84857_MOD3 bus=RM_84857.1.2.3 phases=3 conn=Delta kv=0.38 kw=-0.045 pf=0.92 Daily=cc25_Util Model=3 status=variable vminpu=0.92 vmaxpu=1.1 

New Load.NTUC_32417_MOD2 bus=RM_32417.1.2 phases=1 conn=Delta kv=0.44 kw=-0.4955 pf=0.92 Daily=cc30_Util Model=2 status=variable vminpu=0.92 vmaxpu=1.1 
New Load.NTUC_32417_MOD3 bus=RM_32417.1.2 phases=1 conn=Delta kv=0.44 kw=-0.4955 pf=0.92 Daily=cc30_Util Model=3 status=variable vminpu=0.92 vmaxpu=1.1 

New Load.NTUC_17254_MOD2 bus=RM_17254.1.2 phases=1 conn=Delta kv=0.44 kw=-0.682 pf=0.92 Daily=cc30_Util Model=2 status=variable vminpu=0.92 vmaxpu=1.1 
New Load.NTUC_17254_MOD3 bus=RM_17254.1.2 phases=1 conn=Delta kv=0.44 kw=-0.682 pf=0.92 Daily=cc30_Util Model=3 status=variable vminpu=0.92 vmaxpu=1.1 

New Load.NTUC_19303_MOD2 bus=RM_19303.1.2 phases=1 conn=Delta kv=0.44 kw=-0.7775 pf=0.92 Daily=cc31_Util Model=2 status=variable vminpu=0.92 vmaxpu=1.1 
New Load.NTUC_19303_MOD3 bus=RM_19303.1.2 phases=1 conn=Delta kv=0.44 kw=-0.7775 pf=0.92 Daily=cc31_Util Model=3 status=variable vminpu=0.92 vmaxpu=1.1 

New Load.NTUC_19302_MOD2 bus=RM_19302.1.2 phases=1 conn=Delta kv=0.44 kw=-0.3415 pf=0.92 Daily=cc30_Util Model=2 status=variable vminpu=0.92 vmaxpu=1.1 
New Load.NTUC_19302_MOD3 bus=RM_19302.1.2 phases=1 conn=Delta kv=0.44 kw=-0.3415 pf=0.92 Daily=cc30_Util Model=3 status=variable vminpu=0.92 vmaxpu=1.1 

New Load.NTUC_79508_MOD2 bus=RM_79508.1 phases=1 conn=Wye kv=0.22 kw=-1.2 pf=0.92 Daily=cc31_Util Model=2 status=variable vminpu=0.92 vmaxpu=1.1 
New Load.NTUC_79508_MOD3 bus=RM_79508.1 phases=1 conn=Wye kv=0.22 kw=-1.2 pf=0.92 Daily=cc31_Util Model=3 status=variable vminpu=0.92 vmaxpu=1.1 

New Load.NTUC_9141_MOD2 bus=RM_9141.1 phases=1 conn=Wye kv=0.22 kw=-0.262 pf=0.92 Daily=cc29_Util Model=2 status=variable vminpu=0.92 vmaxpu=1.1 
New Load.NTUC_9141_MOD3 bus=RM_9141.1 phases=1 conn=Wye kv=0.22 kw=-0.262 pf=0.92 Daily=cc29_Util Model=3 status=variable vminpu=0.92 vmaxpu=1.1 

New Load.NTUC_27184_MOD2 bus=RM_27184.1 phases=1 conn=Wye kv=0.22 kw=-0.0065 pf=0.92 Daily=cc29_Util Model=2 status=variable vminpu=0.92 vmaxpu=1.1 
New Load.NTUC_27184_MOD3 bus=RM_27184.1 phases=1 conn=Wye kv=0.22 kw=-0.0065 pf=0.92 Daily=cc29_Util Model=3 status=variable vminpu=0.92 vmaxpu=1.1 

New Load.NTUC_41105_MOD2 bus=RM_41105.1.2.3 phases=3 conn=Delta kv=0.38 kw=-0.7415 pf=0.92 Daily=cc19_Util Model=2 status=variable vminpu=0.92 vmaxpu=1.1 
New Load.NTUC_41105_MOD3 bus=RM_41105.1.2.3 phases=3 conn=Delta kv=0.38 kw=-0.7415 pf=0.92 Daily=cc19_Util Model=3 status=variable vminpu=0.92 vmaxpu=1.1 

New Load.NTUC_40545_MOD2 bus=RM_40545.1 phases=1 conn=Wye kv=0.219 kw=-0.105 pf=0.92 Daily=cc29_Util Model=2 status=variable vminpu=0.92 vmaxpu=1.1 
New Load.NTUC_40545_MOD3 bus=RM_40545.1 phases=1 conn=Wye kv=0.219 kw=-0.105 pf=0.92 Daily=cc29_Util Model=3 status=variable vminpu=0.92 vmaxpu=1.1 

New Load.NTUC_49191_MOD2 bus=RM_49191.1.2 phases=1 conn=Delta kv=0.44 kw=-2.542 pf=0.92 Daily=cc32_Util Model=2 status=variable vminpu=0.92 vmaxpu=1.1 
New Load.NTUC_49191_MOD3 bus=RM_49191.1.2 phases=1 conn=Delta kv=0.44 kw=-2.542 pf=0.92 Daily=cc32_Util Model=3 status=variable vminpu=0.92 vmaxpu=1.1 

New Load.NTUC_45707_MOD2 bus=RM_45707.1 phases=1 conn=Wye kv=0.219 kw=-0.0465 pf=0.92 Daily=cc29_Util Model=2 status=variable vminpu=0.92 vmaxpu=1.1 
New Load.NTUC_45707_MOD3 bus=RM_45707.1 phases=1 conn=Wye kv=0.219 kw=-0.0465 pf=0.92 Daily=cc29_Util Model=3 status=variable vminpu=0.92 vmaxpu=1.1 

New Load.NTUC_63518_MOD2 bus=RM_63518.1 phases=1 conn=Wye kv=0.22 kw=-0.215 pf=0.92 Daily=cc29_Util Model=2 status=variable vminpu=0.92 vmaxpu=1.1 
New Load.NTUC_63518_MOD3 bus=RM_63518.1 phases=1 conn=Wye kv=0.22 kw=-0.215 pf=0.92 Daily=cc29_Util Model=3 status=variable vminpu=0.92 vmaxpu=1.1 

New Load.NTUC_44592_MOD2 bus=RM_44592.1 phases=1 conn=Wye kv=0.22 kw=-0.1515 pf=0.92 Daily=cc29_Util Model=2 status=variable vminpu=0.92 vmaxpu=1.1 
New Load.NTUC_44592_MOD3 bus=RM_44592.1 phases=1 conn=Wye kv=0.22 kw=-0.1515 pf=0.92 Daily=cc29_Util Model=3 status=variable vminpu=0.92 vmaxpu=1.1 

New Load.NTUC_32273_MOD2 bus=RM_32273.1 phases=1 conn=Wye kv=0.22 kw=-0.4695 pf=0.92 Daily=cc30_Util Model=2 status=variable vminpu=0.92 vmaxpu=1.1 
New Load.NTUC_32273_MOD3 bus=RM_32273.1 phases=1 conn=Wye kv=0.22 kw=-0.4695 pf=0.92 Daily=cc30_Util Model=3 status=variable vminpu=0.92 vmaxpu=1.1 

New Load.NTUC_14335_MOD2 bus=RM_14335.1.2 phases=1 conn=Delta kv=0.44 kw=-0.2055 pf=0.92 Daily=cc29_Util Model=2 status=variable vminpu=0.92 vmaxpu=1.1 
New Load.NTUC_14335_MOD3 bus=RM_14335.1.2 phases=1 conn=Delta kv=0.44 kw=-0.2055 pf=0.92 Daily=cc29_Util Model=3 status=variable vminpu=0.92 vmaxpu=1.1 

New Load.NTUC_17273_MOD2 bus=RM_17273.1.2 phases=1 conn=Delta kv=0.44 kw=-0.398 pf=0.92 Daily=cc30_Util Model=2 status=variable vminpu=0.92 vmaxpu=1.1 
New Load.NTUC_17273_MOD3 bus=RM_17273.1.2 phases=1 conn=Delta kv=0.44 kw=-0.398 pf=0.92 Daily=cc30_Util Model=3 status=variable vminpu=0.92 vmaxpu=1.1 

New Load.NTUC_17272_MOD2 bus=RM_17272.1.2 phases=1 conn=Delta kv=0.44 kw=-0.309 pf=0.92 Daily=cc29_Util Model=2 status=variable vminpu=0.92 vmaxpu=1.1 
New Load.NTUC_17272_MOD3 bus=RM_17272.1.2 phases=1 conn=Delta kv=0.44 kw=-0.309 pf=0.92 Daily=cc29_Util Model=3 status=variable vminpu=0.92 vmaxpu=1.1 

New Load.NTUC_17268_MOD2 bus=RM_17268.1.2 phases=1 conn=Delta kv=0.44 kw=-0.6165 pf=0.92 Daily=cc30_Util Model=2 status=variable vminpu=0.92 vmaxpu=1.1 
New Load.NTUC_17268_MOD3 bus=RM_17268.1.2 phases=1 conn=Delta kv=0.44 kw=-0.6165 pf=0.92 Daily=cc30_Util Model=3 status=variable vminpu=0.92 vmaxpu=1.1 

New Load.NTUC_17274_MOD2 bus=RM_17274.1.2 phases=1 conn=Delta kv=0.44 kw=-0.314 pf=0.92 Daily=cc29_Util Model=2 status=variable vminpu=0.92 vmaxpu=1.1 
New Load.NTUC_17274_MOD3 bus=RM_17274.1.2 phases=1 conn=Delta kv=0.44 kw=-0.314 pf=0.92 Daily=cc29_Util Model=3 status=variable vminpu=0.92 vmaxpu=1.1 

New Load.NTUC_74226_MOD2 bus=RM_74226.1 phases=1 conn=Wye kv=0.22 kw=-0.2755 pf=0.92 Daily=cc29_Util Model=2 status=variable vminpu=0.92 vmaxpu=1.1 
New Load.NTUC_74226_MOD3 bus=RM_74226.1 phases=1 conn=Wye kv=0.22 kw=-0.2755 pf=0.92 Daily=cc29_Util Model=3 status=variable vminpu=0.92 vmaxpu=1.1 

New Load.NTUC_74227_MOD2 bus=BT_26698_1.1 phases=1 conn=Wye kv=0.22 kw=-0.3155 pf=0.92 Daily=cc29_Util Model=2 status=variable vminpu=0.92 vmaxpu=1.1 
New Load.NTUC_74227_MOD3 bus=BT_26698_1.1 phases=1 conn=Wye kv=0.22 kw=-0.3155 pf=0.92 Daily=cc29_Util Model=3 status=variable vminpu=0.92 vmaxpu=1.1 

New Load.NTUC_29938_MOD2 bus=RM_29938.2 phases=1 conn=Wye kv=0.22 kw=-0.2225 pf=0.92 Daily=cc17_Util Model=2 status=variable vminpu=0.92 vmaxpu=1.1 
New Load.NTUC_29938_MOD3 bus=RM_29938.2 phases=1 conn=Wye kv=0.22 kw=-0.2225 pf=0.92 Daily=cc17_Util Model=3 status=variable vminpu=0.92 vmaxpu=1.1 

New Load.NTUC_36884_MOD2 bus=RM_36884.1.2 phases=1 conn=Delta kv=0.44 kw=-0.7595 pf=0.92 Daily=cc31_Util Model=2 status=variable vminpu=0.92 vmaxpu=1.1 
New Load.NTUC_36884_MOD3 bus=RM_36884.1.2 phases=1 conn=Delta kv=0.44 kw=-0.7595 pf=0.92 Daily=cc31_Util Model=3 status=variable vminpu=0.92 vmaxpu=1.1 

New Load.NTUC_63000_MOD2 bus=RM_63000.1 phases=1 conn=Wye kv=0.22 kw=-0.4145 pf=0.92 Daily=cc18_Util Model=2 status=variable vminpu=0.92 vmaxpu=1.1 
New Load.NTUC_63000_MOD3 bus=RM_63000.1 phases=1 conn=Wye kv=0.22 kw=-0.4145 pf=0.92 Daily=cc18_Util Model=3 status=variable vminpu=0.92 vmaxpu=1.1 

New Load.NTUC_17266_MOD2 bus=RM_17266.1.2 phases=1 conn=Delta kv=0.44 kw=-0.7245 pf=0.92 Daily=cc30_Util Model=2 status=variable vminpu=0.92 vmaxpu=1.1 
New Load.NTUC_17266_MOD3 bus=RM_17266.1.2 phases=1 conn=Delta kv=0.44 kw=-0.7245 pf=0.92 Daily=cc30_Util Model=3 status=variable vminpu=0.92 vmaxpu=1.1 

New Load.NTUC_73490_MOD2 bus=RM_73490.2 phases=1 conn=Wye kv=0.22 kw=-0.22 pf=0.92 Daily=cc29_Util Model=2 status=variable vminpu=0.92 vmaxpu=1.1 
New Load.NTUC_73490_MOD3 bus=RM_73490.2 phases=1 conn=Wye kv=0.22 kw=-0.22 pf=0.92 Daily=cc29_Util Model=3 status=variable vminpu=0.92 vmaxpu=1.1 

New Load.NTUC_17286_MOD2 bus=RM_17286.1.2 phases=1 conn=Delta kv=0.44 kw=-0.4925 pf=0.92 Daily=cc30_Util Model=2 status=variable vminpu=0.92 vmaxpu=1.1 
New Load.NTUC_17286_MOD3 bus=RM_17286.1.2 phases=1 conn=Delta kv=0.44 kw=-0.4925 pf=0.92 Daily=cc30_Util Model=3 status=variable vminpu=0.92 vmaxpu=1.1 

New Load.NTUC_17280_MOD2 bus=RM_17280.1.2 phases=1 conn=Delta kv=0.44 kw=-0.6185 pf=0.92 Daily=cc30_Util Model=2 status=variable vminpu=0.92 vmaxpu=1.1 
New Load.NTUC_17280_MOD3 bus=RM_17280.1.2 phases=1 conn=Delta kv=0.44 kw=-0.6185 pf=0.92 Daily=cc30_Util Model=3 status=variable vminpu=0.92 vmaxpu=1.1 

New Load.NTUC_17281_MOD2 bus=RM_17281.2 phases=1 conn=Wye kv=0.22 kw=-0.1785 pf=0.92 Daily=cc29_Util Model=2 status=variable vminpu=0.92 vmaxpu=1.1 
New Load.NTUC_17281_MOD3 bus=RM_17281.2 phases=1 conn=Wye kv=0.22 kw=-0.1785 pf=0.92 Daily=cc29_Util Model=3 status=variable vminpu=0.92 vmaxpu=1.1 

New Load.NTUC_33640_MOD2 bus=RM_33640.1 phases=1 conn=Wye kv=0.22 kw=-0.2085 pf=0.92 Daily=cc29_Util Model=2 status=variable vminpu=0.92 vmaxpu=1.1 
New Load.NTUC_33640_MOD3 bus=RM_33640.1 phases=1 conn=Wye kv=0.22 kw=-0.2085 pf=0.92 Daily=cc29_Util Model=3 status=variable vminpu=0.92 vmaxpu=1.1 

New Load.NTUC_17279_MOD2 bus=RM_17279.1.2 phases=1 conn=Delta kv=0.44 kw=-0.776 pf=0.92 Daily=cc30_Util Model=2 status=variable vminpu=0.92 vmaxpu=1.1 
New Load.NTUC_17279_MOD3 bus=RM_17279.1.2 phases=1 conn=Delta kv=0.44 kw=-0.776 pf=0.92 Daily=cc30_Util Model=3 status=variable vminpu=0.92 vmaxpu=1.1 

New Load.NTUC_17678_MOD2 bus=RM_17678.1.2.3 phases=3 conn=Delta kv=0.38 kw=-0.142 pf=0.92 Daily=cc31_Util Model=2 status=variable vminpu=0.92 vmaxpu=1.1 
New Load.NTUC_17678_MOD3 bus=RM_17678.1.2.3 phases=3 conn=Delta kv=0.38 kw=-0.142 pf=0.92 Daily=cc31_Util Model=3 status=variable vminpu=0.92 vmaxpu=1.1 

New Load.NTUC_17677_MOD2 bus=RM_17677.1.2 phases=1 conn=Delta kv=0.38 kw=-0.6535 pf=0.92 Daily=cc30_Util Model=2 status=variable vminpu=0.92 vmaxpu=1.1 
New Load.NTUC_17677_MOD3 bus=RM_17677.1.2 phases=1 conn=Delta kv=0.38 kw=-0.6535 pf=0.92 Daily=cc30_Util Model=3 status=variable vminpu=0.92 vmaxpu=1.1 

New Load.NTUC_17255_MOD2 bus=RM_17255.1.2 phases=1 conn=Delta kv=0.44 kw=-0.514 pf=0.92 Daily=cc30_Util Model=2 status=variable vminpu=0.92 vmaxpu=1.1 
New Load.NTUC_17255_MOD3 bus=RM_17255.1.2 phases=1 conn=Delta kv=0.44 kw=-0.514 pf=0.92 Daily=cc30_Util Model=3 status=variable vminpu=0.92 vmaxpu=1.1 

New Load.NTUC_79216_MOD2 bus=RM_79216.1.2.3 phases=3 conn=Delta kv=0.38 kw=-0.1415 pf=0.92 Daily=cc32_Util Model=2 status=variable vminpu=0.92 vmaxpu=1.1 
New Load.NTUC_79216_MOD3 bus=RM_79216.1.2.3 phases=3 conn=Delta kv=0.38 kw=-0.1415 pf=0.92 Daily=cc32_Util Model=3 status=variable vminpu=0.92 vmaxpu=1.1 

New Load.NTUC_17244_MOD2 bus=RM_17244.1.2 phases=1 conn=Delta kv=0.44 kw=-0.813 pf=0.92 Daily=cc31_Util Model=2 status=variable vminpu=0.92 vmaxpu=1.1 
New Load.NTUC_17244_MOD3 bus=RM_17244.1.2 phases=1 conn=Delta kv=0.44 kw=-0.813 pf=0.92 Daily=cc31_Util Model=3 status=variable vminpu=0.92 vmaxpu=1.1 

New Load.NTUC_17283_MOD2 bus=RM_17283.1 phases=1 conn=Wye kv=0.22 kw=-0.502 pf=0.92 Daily=cc30_Util Model=2 status=variable vminpu=0.92 vmaxpu=1.1 
New Load.NTUC_17283_MOD3 bus=RM_17283.1 phases=1 conn=Wye kv=0.22 kw=-0.502 pf=0.92 Daily=cc30_Util Model=3 status=variable vminpu=0.92 vmaxpu=1.1 

New Load.NTUC_42999_MOD2 bus=RM_42999.1.2 phases=1 conn=Delta kv=0.44 kw=-1.6835 pf=0.92 Daily=cc26_Util Model=2 status=variable vminpu=0.92 vmaxpu=1.1 
New Load.NTUC_42999_MOD3 bus=RM_42999.1.2 phases=1 conn=Delta kv=0.44 kw=-1.6835 pf=0.92 Daily=cc26_Util Model=3 status=variable vminpu=0.92 vmaxpu=1.1 

New Load.NTUC_44655_MOD2 bus=RM_44655.2 phases=1 conn=Wye kv=0.22 kw=-0.3565 pf=0.92 Daily=cc30_Util Model=2 status=variable vminpu=0.92 vmaxpu=1.1 
New Load.NTUC_44655_MOD3 bus=RM_44655.2 phases=1 conn=Wye kv=0.22 kw=-0.3565 pf=0.92 Daily=cc30_Util Model=3 status=variable vminpu=0.92 vmaxpu=1.1 

New Load.NTUC_65367_MOD2 bus=RM_65367.1.2.3 phases=3 conn=Delta kv=0.38 kw=-0.8955 pf=0.92 Daily=cc31_Util Model=2 status=variable vminpu=0.92 vmaxpu=1.1 
New Load.NTUC_65367_MOD3 bus=RM_65367.1.2.3 phases=3 conn=Delta kv=0.38 kw=-0.8955 pf=0.92 Daily=cc31_Util Model=3 status=variable vminpu=0.92 vmaxpu=1.1 

New Load.NTUC_36931_MOD2 bus=RM_36931.1.2 phases=1 conn=Delta kv=0.44 kw=-0.3485 pf=0.92 Daily=cc30_Util Model=2 status=variable vminpu=0.92 vmaxpu=1.1 
New Load.NTUC_36931_MOD3 bus=RM_36931.1.2 phases=1 conn=Delta kv=0.44 kw=-0.3485 pf=0.92 Daily=cc30_Util Model=3 status=variable vminpu=0.92 vmaxpu=1.1 

New Load.NTUC_16841_MOD2 bus=RM_16841.1.2 phases=1 conn=Delta kv=0.44 kw=-0.195 pf=0.92 Daily=cc29_Util Model=2 status=variable vminpu=0.92 vmaxpu=1.1 
New Load.NTUC_16841_MOD3 bus=RM_16841.1.2 phases=1 conn=Delta kv=0.44 kw=-0.195 pf=0.92 Daily=cc29_Util Model=3 status=variable vminpu=0.92 vmaxpu=1.1 

New Load.NTUC_27890_MOD2 bus=RM_27890.1.2 phases=1 conn=Delta kv=0.44 kw=-0.4245 pf=0.92 Daily=cc30_Util Model=2 status=variable vminpu=0.92 vmaxpu=1.1 
...